Energy = -2802.616662482
  MOE2020           2D

 12 12  0  0  0  0  0  0  0  0999 V2000
    0.0000    1.8919    0.0000 C   0  0  0  0  0  0  0  0  0  0  0  0
    1.2136    2.5744    0.0000 C   0  0  0  0  0  0  0  0  0  0  0  0
    2.1474    2.0319    0.0000 H   0  0  0  0  0  0  0  0  0  0  0  0
    1.2054    3.9677    0.0000 C   0  0  0  0  0  0  0  0  0  0  0  0
    2.1397    4.5094    0.0000 H   0  0  0  0  0  0  0  0  0  0  0  0
    0.0003    4.6671    0.0000 C   0  0  0  0  0  0  0  0  0  0  0  0
    0.0004    5.7471    0.0000 H   0  0  0  0  0  0  0  0  0  0  0  0
   -1.2049    3.9679    0.0000 C   0  0  0  0  0  0  0  0  0  0  0  0
   -2.1391    4.5098    0.0000 H   0  0  0  0  0  0  0  0  0  0  0  0
   -1.2135    2.5746    0.0000 C   0  0  0  0  0  0  0  0  0  0  0  0
   -2.1475    2.0323    0.0000 H   0  0  0  0  0  0  0  0  0  0  0  0
    0.0000    0.0000    0.0000 Br  0  0  0  0  0  0  0  0  0  0  0  0
  1  2  1  0  0  0  0
  1 10  2  0  0  0  0
  1 12  1  0  0  0  0
  2  3  1  0  0  0  0
  2  4  2  0  0  0  0
  4  5  1  0  0  0  0
  4  6  1  0  0  0  0
  6  7  1  0  0  0  0
  6  8  2  0  0  0  0
  8  9  1  0  0  0  0
  8 10  1  0  0  0  0
 10 11  1  0  0  0  0
M  END
$$$$
